# LMD import normalization. Review inferred bonds and atom types in the import report.
@<TRIPOS>MOLECULE
"C38 H58 O6 S"
103 104 0 0 0
SMALL
USER_CHARGES

@<TRIPOS>ATOM
1 C 8.07608 -18.5275 -0.0466029 C.2 0 **** 0
2 C 8.06794 -20.0596 0.0861446 C.2 0 **** 0
3 C 9.38991 -20.8244 0.273883 C.2 0 **** 0
4 C 10.7215 -20.0527 0.335168 C.2 0 **** 0
5 C 10.7323 -18.5189 0.204164 C.2 0 **** 0
6 C 9.40748 -17.756 0.00219784 C.2 0 **** 0
7 C 6.75043 -17.7643 -0.208162 C.3 0 **** 0
8 C 12.0777 -17.7697 0.216076 C.3 0 **** 0
9 O 9.4046 -16.2496 -0.104818 O.3 0 **** 0
10 C 9.36872 -22.3538 0.473687 C.3 0 **** 0
11 C 10.7484 -22.8831 0.915619 C.3 0 **** 0
12 C 11.8033 -22.7357 -0.19944 C.2 0 **** 0
13 O 13.054 -23.5789 -0.155546 O.3 0 **** 0
14 O 11.5272 -21.8619 -1.39796 O.2 0 **** 0
15 C 14.2794 -22.6947 -0.138216 C.3 0 **** 0
16 C 15.5387 -23.5791 -0.0462188 C.3 0 **** 0
17 C 13.177 -18.7676 -0.190496 C.3 0 **** 0
18 C 12.0832 -16.5913 -0.775079 C.3 0 **** 0
19 C 12.3553 -17.248 1.6375 C.3 0 **** 0
20 C 5.58458 -18.7688 -0.18465 C.3 0 **** 0
21 C 6.59409 -16.763 0.951697 C.3 0 **** 0
22 C 6.75285 -17.0021 -1.54649 C.3 0 **** 0
23 S 17.0203 -22.5422 -0.031672 S.3 0 **** 0
24 C 27.1086 -17.0854 1.6019 C.3 0 **** 0
25 C 27.3276 -16.7221 -0.874016 C.3 0 **** 0
26 C 28.3533 -18.7616 0.190238 C.3 0 **** 0
27 C 21.6142 -17.1823 -1.57671 C.3 0 **** 0
28 C 21.8115 -16.7938 0.902573 C.3 0 **** 0
29 C 20.7398 -18.8943 0.0485245 C.3 0 **** 0
30 C 18.4881 -23.5886 0.131535 C.3 0 **** 0
31 C 19.7596 -22.7198 0.129815 C.3 0 **** 0
32 O 22.6001 -21.9369 1.44837 O.2 0 **** 0
33 O 20.9667 -23.6135 0.284044 O.3 0 **** 0
34 C 22.234 -22.7904 0.258271 C.2 0 **** 0
35 C 23.218 -22.9439 -0.918774 C.3 0 **** 0
36 C 24.6141 -22.3981 -0.565826 C.3 0 **** 0
37 O 24.4957 -16.3065 0.113338 O.3 0 **** 0
38 C 21.8464 -17.8561 -0.212559 C.3 0 **** 0
39 C 27.1649 -17.7833 0.230527 C.3 0 **** 0
40 C 24.5151 -17.8084 -0.0346489 C.2 0 **** 0
41 C 23.2011 -18.5894 -0.229535 C.2 0 **** 0
42 C 23.2323 -20.121 -0.386357 C.2 0 **** 0
43 C 24.576 -20.8733 -0.354153 C.2 0 **** 0
44 C 25.8887 -20.0912 -0.156897 C.2 0 **** 0
45 C 25.8559 -18.562 0.0121747 C.2 0 **** 0
46 H 7.08014 -20.627 0.0538686 H 0 **** 0
47 H 11.7016 -20.6171 0.480537 H 0 **** 0
48 H 10.2318 -15.8382 0.510558 H 0 **** 0
49 H 9.05162 -22.8725 -0.491662 H 0 **** 0
50 H 8.61029 -22.5909 1.29204 H 0 **** 0
51 H 10.6488 -23.9925 1.15726 H 0 **** 0
52 H 11.0879 -22.3249 1.84956 H 0 **** 0
53 H 14.235 -22.0018 0.766175 H 0 **** 0
54 H 14.3122 -22.0746 -1.09427 H 0 **** 0
55 H 15.5766 -24.2807 -0.94301 H 0 **** 0
56 H 15.4965 -24.1957 0.910764 H 0 **** 0
57 H 12.968 -19.1538 -1.24239 H 0 **** 0
58 H 13.1827 -19.6434 0.539439 H 0 **** 0
59 H 14.191 -18.2469 -0.172534 H 0 **** 0
60 H 11.2923 -15.8276 -0.477937 H 0 **** 0
61 H 11.8668 -16.9773 -1.82554 H 0 **** 0
62 H 13.1078 -16.0921 -0.757594 H 0 **** 0
63 H 13.3645 -16.718 1.6583 H 0 **** 0
64 H 12.3708 -18.1238 2.36708 H 0 **** 0
65 H 11.535 -16.5163 1.9391 H 0 **** 0
66 H 5.58884 -19.3297 0.807653 H 0 **** 0
67 H 5.70761 -19.5113 -1.04082 H 0 **** 0
68 H 4.59687 -18.2116 -0.301751 H 0 **** 0
69 H 6.59476 -17.3262 1.9428 H 0 **** 0
70 H 5.61003 -16.1992 0.834768 H 0 **** 0
71 H 7.46245 -16.0245 0.933717 H 0 **** 0
72 H 6.86977 -17.7428 -2.40514 H 0 **** 0
73 H 7.62227 -16.2643 -1.55784 H 0 **** 0
74 H 5.77016 -16.4366 -1.66377 H 0 **** 0
75 H 26.9838 -17.8685 2.42087 H 0 **** 0
76 H 26.2213 -16.3695 1.6225 H 0 **** 0
77 H 28.0747 -16.5046 1.77277 H 0 **** 0
78 H 26.4454 -16 -0.838654 H 0 **** 0
79 H 27.3596 -17.2356 -1.89197 H 0 **** 0
80 H 28.2972 -16.1453 -0.707418 H 0 **** 0
81 H 28.3865 -19.2771 -0.825951 H 0 **** 0
82 H 28.2251 -19.5444 1.00891 H 0 **** 0
83 H 29.3234 -18.1866 0.357918 H 0 **** 0
84 H 21.6276 -17.9732 -2.39744 H 0 **** 0
85 H 22.441 -16.4209 -1.76784 H 0 **** 0
86 H 20.6042 -16.6537 -1.57255 H 0 **** 0
87 H 21.9912 -17.295 1.91074 H 0 **** 0
88 H 20.7901 -16.288 0.907515 H 0 **** 0
89 H 22.6165 -16.0095 0.716552 H 0 **** 0
90 H 20.9184 -19.3905 1.05974 H 0 **** 0
91 H 20.7623 -19.6866 -0.77134 H 0 **** 0
92 H 19.7245 -18.3758 0.0519179 H 0 **** 0
93 H 18.4282 -24.1707 1.10992 H 0 **** 0
94 H 18.5302 -24.3209 -0.741204 H 0 **** 0
95 H 19.7198 -21.9818 0.998495 H 0 **** 0
96 H 19.8296 -22.1457 -0.853305 H 0 **** 0
97 H 22.8174 -22.3903 -1.83065 H 0 **** 0
98 H 23.3088 -24.0533 -1.16296 H 0 **** 0
99 H 25.324 -22.6199 -1.43005 H 0 **** 0
100 H 24.9987 -22.9135 0.375831 H 0 **** 0
101 H 25.5196 -15.9479 0.344361 H 0 **** 0
102 H 22.2596 -20.6989 -0.527625 H 0 **** 0
103 H 26.8854 -20.6442 -0.135719 H 0 **** 0
@<TRIPOS>BOND
1 1 2 ar
2 2 3 ar
3 3 4 ar
4 4 5 ar
5 5 6 ar
6 6 1 ar
7 1 7 1
8 5 8 1
9 6 9 1
10 3 10 1
11 10 11 1
12 11 12 1
13 12 13 1
14 12 14 2
15 13 15 1
16 15 16 1
17 8 17 1
18 8 18 1
19 8 19 1
20 7 20 1
21 7 21 1
22 7 22 1
23 16 23 1
24 39 24 1
25 39 25 1
26 39 26 1
27 38 27 1
28 38 28 1
29 38 29 1
30 31 30 1
31 33 31 1
32 34 32 2
33 34 33 1
34 35 34 1
35 36 35 1
36 43 36 1
37 40 37 1
38 41 38 1
39 45 39 1
40 40 45 ar
41 41 40 ar
42 42 41 ar
43 43 42 ar
44 44 43 ar
45 45 44 ar
46 23 30 1
47 2 46 1
48 4 47 1
49 9 48 1
50 10 49 1
51 10 50 1
52 11 51 1
53 11 52 1
54 15 53 1
55 15 54 1
56 16 55 1
57 16 56 1
58 17 57 1
59 17 58 1
60 17 59 1
61 18 60 1
62 18 61 1
63 18 62 1
64 19 63 1
65 19 64 1
66 19 65 1
67 20 66 1
68 20 67 1
69 20 68 1
70 21 69 1
71 21 70 1
72 21 71 1
73 22 72 1
74 22 73 1
75 22 74 1
76 24 75 1
77 24 76 1
78 24 77 1
79 25 78 1
80 25 79 1
81 25 80 1
82 26 81 1
83 26 82 1
84 26 83 1
85 27 84 1
86 27 85 1
87 27 86 1
88 28 87 1
89 28 88 1
90 28 89 1
91 29 90 1
92 29 91 1
93 29 92 1
94 30 93 1
95 30 94 1
96 31 95 1
97 31 96 1
98 35 97 1
99 35 98 1
100 36 99 1
101 36 100 1
102 37 101 1
103 42 102 1
104 44 103 1
