# LMD import normalization. Review inferred bonds and atom types in the import report.
@<TRIPOS>MOLECULE
"C19 H24 O3"
70 70 0 0 0
SMALL
USER_CHARGES

@<TRIPOS>ATOM
1 C 7.96689 -45.9016 -0.0661471 C.2 0 **** 0
2 C 7.97421 -47.4363 0.0397597 C.2 0 **** 0
3 C 9.3093 -48.2009 0.0882691 C.2 0 **** 0
4 C 10.6386 -47.4214 0.0765713 C.2 0 **** 0
5 C 10.6349 -45.8866 -0.0517869 C.2 0 **** 0
6 C 9.2944 -45.1246 -0.125898 C.2 0 **** 0
7 O 9.27076 -43.6207 -0.245 O.3 0 **** 0
8 C 6.62708 -45.1447 -0.0897779 C.3 0 **** 0
9 C 11.9807 -45.143 -0.168926 C.3 0 **** 0
10 C 9.29561 -49.7354 0.241305 C.3 0 **** 0
11 C 10.5334 -50.277 0.980858 C.3 0 **** 0
12 C 11.8223 -50.1092 0.154598 C.2 0 **** 0
13 O 13.1308 -50.6291 0.697226 O.3 0 **** 0
14 O 11.7788 -49.4599 -1.20765 O.2 0 **** 0
15 C 17.8638 -41.7616 0.254459 C.3 0 **** 0
16 C 17.8172 -43.2292 -0.20816 C.3 0 **** 0
17 C 16.5958 -43.9281 0.416926 C.3 0 **** 0
18 C 16.5627 -45.3932 -0.054962 C.3 0 **** 0
19 C 15.3484 -46.114 0.557327 C.3 0 **** 0
20 C 15.351 -47.5711 0.061689 C.3 0 **** 0
21 C 14.1655 -48.3576 0.65016 C.3 0 **** 0
22 C 14.2695 -49.8084 0.145251 C.3 0 **** 0
23 H 6.98868 -48.0078 0.0844627 H 0 **** 0
24 H 11.6291 -47.9795 0.157481 H 0 **** 0
25 H 9.86693 -43.1799 0.580897 H 0 **** 0
26 H 9.22066 -50.2286 -0.783685 H 0 **** 0
27 H 8.3728 -50.0102 0.851218 H 0 **** 0
28 H 10.3834 -51.3923 1.16349 H 0 **** 0
29 H 10.6393 -49.7465 1.98429 H 0 **** 0
30 H 17.9468 -41.7239 1.39072 H 0 **** 0
31 H 16.9116 -41.2285 -0.0753843 H 0 **** 0
32 H 18.7686 -41.2467 -0.210113 H 0 **** 0
33 H 17.7376 -43.2682 -1.34479 H 0 **** 0
34 H 18.7684 -43.7621 0.12487 H 0 **** 0
35 H 16.6799 -43.8952 1.55325 H 0 **** 0
36 H 15.6405 -43.3992 0.0893729 H 0 **** 0
37 H 16.4862 -45.4237 -1.19201 H 0 **** 0
38 H 17.5198 -45.9173 0.27485 H 0 **** 0
39 H 15.4228 -46.0926 1.69448 H 0 **** 0
40 H 14.3914 -45.5924 0.227798 H 0 **** 0
41 H 15.2827 -47.5841 -1.07604 H 0 **** 0
42 H 16.3234 -48.0696 0.386464 H 0 **** 0
43 H 14.2222 -48.3444 1.78855 H 0 **** 0
44 H 13.1785 -47.8977 0.312927 H 0 **** 0
45 H 15.2585 -50.2564 0.492563 H 0 **** 0
46 H 14.2279 -49.8191 -0.993836 H 0 **** 0
47 C 6.6075 -44.0903 1.03201 C.3 0 **** 0
48 C 5.48251 -46.1503 0.130642 C.3 0 **** 0
49 C 6.4529 -44.4506 -1.45256 C.3 0 **** 0
50 C 11.8182 -43.7159 -0.723869 C.3 0 **** 0
51 C 12.882 -45.9446 -1.12666 C.3 0 **** 0
52 C 12.6434 -45.0758 1.21949 C.3 0 **** 0
53 H 7.45859 -43.3493 0.871264 H 0 **** 0
54 H 6.73867 -44.607 2.0395 H 0 **** 0
55 H 5.61168 -43.5354 1.0154 H 0 **** 0
56 H 5.61937 -46.6631 1.13951 H 0 **** 0
57 H 5.50244 -46.9329 -0.697941 H 0 **** 0
58 H 4.48367 -45.6011 0.113767 H 0 **** 0
59 H 6.46651 -45.2327 -2.28166 H 0 **** 0
60 H 7.30724 -43.7125 -1.61082 H 0 **** 0
61 H 5.45861 -43.8934 -1.47044 H 0 **** 0
62 H 11.1841 -43.0963 -0.00815807 H 0 **** 0
63 H 11.3141 -43.7597 -1.74554 H 0 **** 0
64 H 12.8459 -43.2332 -0.826022 H 0 **** 0
65 H 12.3963 -45.9898 -2.1569 H 0 **** 0
66 H 13.0188 -47.0026 -0.726425 H 0 **** 0
67 H 13.8992 -45.4355 -1.20516 H 0 **** 0
68 H 13.6566 -44.5607 1.12888 H 0 **** 0
69 H 12.7914 -46.1334 1.61861 H 0 **** 0
70 H 11.9767 -44.4869 1.93241 H 0 **** 0
@<TRIPOS>BOND
1 21 22 1
2 20 21 1
3 19 20 1
4 18 19 1
5 17 18 1
6 16 17 1
7 15 16 1
8 1 2 ar
9 2 3 ar
10 3 4 ar
11 4 5 ar
12 5 6 ar
13 6 1 ar
14 6 7 1
15 1 8 1
16 5 9 1
17 3 10 1
18 10 11 1
19 11 12 1
20 12 13 1
21 12 14 2
22 13 22 1
23 2 23 1
24 4 24 1
25 7 25 1
26 10 26 1
27 10 27 1
28 11 28 1
29 11 29 1
30 15 30 1
31 15 31 1
32 15 32 1
33 16 33 1
34 16 34 1
35 17 35 1
36 17 36 1
37 18 37 1
38 18 38 1
39 19 39 1
40 19 40 1
41 20 41 1
42 20 42 1
43 21 43 1
44 21 44 1
45 22 45 1
46 22 46 1
47 47 53 1
48 47 54 1
49 47 55 1
50 48 56 1
51 48 57 1
52 48 58 1
53 49 59 1
54 49 60 1
55 49 61 1
56 50 62 1
57 50 63 1
58 50 64 1
59 51 65 1
60 51 66 1
61 51 67 1
62 52 68 1
63 52 69 1
64 52 70 1
65 8 47 1
66 8 48 1
67 8 49 1
68 9 50 1
69 9 51 1
70 9 52 1
