# LMD import normalization. Review inferred bonds and atom types in the import report.
@<TRIPOS>MOLECULE
"C24 H35 N"
60 61 0 0 0
SMALL
USER_CHARGES

@<TRIPOS>ATOM
1 C 8.37966 -25.053 -0.14482 C.2 0 **** 0
2 C 8.34811 -26.5615 0.160892 C.2 0 **** 0
3 C 9.66145 -27.3248 0.401725 C.2 0 **** 0
4 C 11.0066 -26.5796 0.349604 C.2 0 **** 0
5 C 11.0455 -25.0749 0.0180581 C.2 0 **** 0
6 C 9.72716 -24.3084 -0.206023 C.2 0 **** 0
7 N 12.3639 -24.334 -0.0533121 N.2 0 **** 0
8 C 13.6801 -25.0806 -0.0353559 C.2 0 **** 0
9 C 13.7201 -26.6045 -0.259061 C.2 0 **** 0
10 C 15.0546 -27.3639 -0.159445 C.2 0 **** 0
11 C 16.3536 -26.6009 0.152125 C.2 0 **** 0
12 C 16.3319 -25.0665 0.277006 C.2 0 **** 0
13 C 14.9947 -24.3063 0.182442 C.2 0 **** 0
14 C 6.40411 -31.1559 0.252835 C.3 0 **** 0
15 C 6.04318 -29.6592 0.225197 C.3 0 **** 0
16 C 7.34066 -28.8308 0.194748 C.3 0 **** 0
17 C 7.013 -27.3258 0.175845 C.3 0 **** 0
18 C 26.4474 -26.5719 -0.100851 C.3 0 **** 0
19 C 25.1637 -27.3996 0.095955 C.3 0 **** 0
20 C 23.9341 -26.5083 -0.158242 C.3 0 **** 0
21 C 22.6564 -27.3354 0.0713058 C.3 0 **** 0
22 C 21.413 -26.4534 -0.148322 C.3 0 **** 0
23 C 20.1597 -27.3022 0.132042 C.3 0 **** 0
24 C 18.8809 -26.4626 -0.0425607 C.3 0 **** 0
25 C 17.6802 -27.3715 0.275955 C.3 0 **** 0
26 H 7.40692 -24.4881 -0.329659 H 0 **** 0
27 H 9.6375 -28.443 0.622558 H 0 **** 0
28 H 11.9711 -27.1408 0.574372 H 0 **** 0
29 H 9.74935 -23.1905 -0.427949 H 0 **** 0
30 H 12.3651 -23.2252 -0.106904 H 0 **** 0
31 H 12.7645 -27.1708 -0.510464 H 0 **** 0
32 H 15.08 -28.4933 -0.311601 H 0 **** 0
33 H 17.3027 -24.4949 0.452003 H 0 **** 0
34 H 14.9758 -23.1716 0.291515 H 0 **** 0
35 H 7.00404 -31.4134 -0.681571 H 0 **** 0
36 H 5.4491 -31.7779 0.273272 H 0 **** 0
37 H 7.02754 -31.3845 1.17961 H 0 **** 0
38 H 5.4278 -29.434 -0.707591 H 0 **** 0
39 H 5.43917 -29.3921 1.15443 H 0 **** 0
40 H 7.96443 -29.0671 1.11929 H 0 **** 0
41 H 7.93676 -29.0987 -0.739275 H 0 **** 0
42 H 6.41865 -27.0498 1.10862 H 0 **** 0
43 H 6.40752 -27.0731 -0.756359 H 0 **** 0
44 H 26.4831 -26.1742 -1.16862 H 0 **** 0
45 H 27.3578 -27.2308 0.0905025 H 0 **** 0
46 H 26.4502 -25.6974 0.630657 H 0 **** 0
47 H 25.1569 -28.2759 -0.633238 H 0 **** 0
48 H 25.1306 -27.7948 1.16471 H 0 **** 0
49 H 23.9487 -25.6289 0.566955 H 0 **** 0
50 H 23.9557 -26.1189 -1.22944 H 0 **** 0
51 H 22.6335 -28.2148 -0.653814 H 0 **** 0
52 H 22.653 -27.7263 1.14219 H 0 **** 0
53 H 21.4421 -25.5709 0.572738 H 0 **** 0
54 H 21.3923 -26.0704 -1.2219 H 0 **** 0
55 H 20.1334 -28.1861 -0.58738 H 0 **** 0
56 H 20.2058 -27.6899 1.2031 H 0 **** 0
57 H 18.8962 -25.5805 0.679459 H 0 **** 0
58 H 18.807 -26.0798 -1.11377 H 0 **** 0
59 H 17.7826 -27.7606 1.34262 H 0 **** 0
60 H 17.6727 -28.2532 -0.446607 H 0 **** 0
@<TRIPOS>BOND
1 16 17 1
2 15 16 1
3 14 15 1
4 1 2 ar
5 2 3 ar
6 3 4 ar
7 4 5 ar
8 5 6 ar
9 6 1 ar
10 5 7 1
11 7 8 1
12 8 9 ar
13 9 10 ar
14 10 11 ar
15 11 12 ar
16 12 13 ar
17 13 8 1
18 2 17 1
19 24 25 1
20 23 24 1
21 22 23 1
22 21 22 1
23 20 21 1
24 19 20 1
25 18 19 1
26 11 25 1
27 1 26 1
28 3 27 1
29 4 28 1
30 6 29 1
31 7 30 1
32 9 31 1
33 10 32 1
34 12 33 1
35 13 34 1
36 14 35 1
37 14 36 1
38 14 37 1
39 15 38 1
40 15 39 1
41 16 40 1
42 16 41 1
43 17 42 1
44 17 43 1
45 18 44 1
46 18 45 1
47 18 46 1
48 19 47 1
49 19 48 1
50 20 49 1
51 20 50 1
52 21 51 1
53 21 52 1
54 22 53 1
55 22 54 1
56 23 55 1
57 23 56 1
58 24 57 1
59 24 58 1
60 25 59 1
61 25 60 1
