# LMD import normalization. Review inferred bonds and atom types in the import report.
@<TRIPOS>MOLECULE
"C30 H47 N"
78 79 0 0 0
SMALL
USER_CHARGES

@<TRIPOS>ATOM
1 C 18.4337 -23.3311 -0.162983 C.2 0 **** 0
2 C 18.4388 -24.8551 0.0496069 C.2 0 **** 0
3 C 19.7566 -25.5816 0.373694 C.2 0 **** 0
4 C 21.0789 -24.7951 0.41435 C.2 0 **** 0
5 C 21.0882 -23.2832 0.117933 C.2 0 **** 0
6 C 19.758 -22.545 -0.128424 C.2 0 **** 0
7 N 22.3888 -22.5103 0.0979987 N.2 0 **** 0
8 C 23.723 -23.2259 0.0837917 C.2 0 **** 0
9 C 23.8011 -24.7435 -0.177096 C.2 0 **** 0
10 C 25.1638 -25.4594 -0.168849 C.2 0 **** 0
11 C 26.4545 -24.6557 0.0637894 C.2 0 **** 0
12 C 26.3836 -23.135 0.293131 C.2 0 **** 0
13 C 25.0192 -22.4199 0.293514 C.2 0 **** 0
14 C 7.11794 -25.5205 -0.110566 C.3 0 **** 0
15 C 8.35661 -24.6528 0.179481 C.3 0 **** 0
16 C 9.62763 -25.501 -0.00887958 C.3 0 **** 0
17 C 10.8723 -24.6341 0.257029 C.3 0 **** 0
18 C 12.1335 -25.4964 0.0681993 C.3 0 **** 0
19 C 13.395 -24.6407 0.284789 C.3 0 **** 0
20 C 14.6315 -25.5336 0.0767723 C.3 0 **** 0
21 C 15.9219 -24.7062 0.220885 C.3 0 **** 0
22 C 17.1194 -25.6446 -0.0134397 C.3 0 **** 0
23 C 32.4009 -34.2943 -0.0459633 C.3 0 **** 0
24 C 31.0172 -33.6244 0.0369241 C.3 0 **** 0
25 C 31.1936 -32.0953 0.0317668 C.3 0 **** 0
26 C 29.8166 -31.4094 0.101947 C.3 0 **** 0
27 C 30.0213 -29.8832 0.0966297 C.3 0 **** 0
28 C 28.6597 -29.1656 0.140132 C.3 0 **** 0
29 C 28.9008 -27.6449 0.121302 C.3 0 **** 0
30 C 27.5532 -26.9004 0.127575 C.3 0 **** 0
31 C 27.8108 -25.3822 0.0923582 C.3 0 **** 0
32 H 17.451 -22.7866 -0.35792 H 0 **** 0
33 H 19.7543 -26.7032 0.578082 H 0 **** 0
34 H 22.0478 -25.3317 0.678888 H 0 **** 0
35 H 19.7554 -21.4178 -0.300716 H 0 **** 0
36 H 22.3641 -21.4009 0.0875858 H 0 **** 0
37 H 22.8539 -25.3361 -0.395296 H 0 **** 0
38 H 25.2179 -26.5844 -0.344807 H 0 **** 0
39 H 27.3403 -22.5384 0.461318 H 0 **** 0
40 H 24.9679 -21.2929 0.457043 H 0 **** 0
41 H 7.09116 -26.4032 0.610279 H 0 **** 0
42 H 7.17125 -25.9059 -1.18209 H 0 **** 0
43 H 6.17582 -24.8923 0.0215245 H 0 **** 0
44 H 8.37966 -23.7725 -0.544324 H 0 **** 0
45 H 8.31018 -24.2644 1.25031 H 0 **** 0
46 H 9.61107 -26.3815 0.715294 H 0 **** 0
47 H 9.66403 -25.891 -1.07954 H 0 **** 0
48 H 10.8906 -23.7645 -0.479579 H 0 **** 0
49 H 10.8419 -24.2303 1.32267 H 0 **** 0
50 H 12.1216 -26.3558 0.8173 H 0 **** 0
51 H 12.1457 -25.9172 -0.991127 H 0 **** 0
52 H 13.4077 -23.7899 -0.473787 H 0 **** 0
53 H 13.4007 -24.2123 1.34127 H 0 **** 0
54 H 14.6275 -26.3729 0.848207 H 0 **** 0
55 H 14.5953 -25.9822 -0.970528 H 0 **** 0
56 H 15.9295 -23.8759 -0.560301 H 0 **** 0
57 H 15.9822 -24.2501 1.26369 H 0 **** 0
58 H 17.0239 -26.1167 -1.04643 H 0 **** 0
59 H 17.1219 -26.4655 0.777477 H 0 **** 0
60 H 32.9224 -33.9662 -1.00504 H 0 **** 0
61 H 32.2749 -35.4274 -0.0501892 H 0 **** 0
62 H 33.0293 -33.9847 0.853159 H 0 **** 0
63 H 30.3901 -33.9358 -0.862742 H 0 **** 0
64 H 30.4923 -33.9474 0.995843 H 0 **** 0
65 H 31.8208 -31.7823 0.930656 H 0 **** 0
66 H 31.7228 -31.7801 -0.92719 H 0 **** 0
67 H 29.194 -31.7144 -0.802996 H 0 **** 0
68 H 29.2789 -31.721 1.05759 H 0 **** 0
69 H 30.6386 -29.5812 1.00637 H 0 **** 0
70 H 30.5745 -29.5821 -0.853575 H 0 **** 0
71 H 28.0454 -29.4652 -0.772179 H 0 **** 0
72 H 28.0993 -29.4555 1.08945 H 0 **** 0
73 H 29.5079 -27.3451 1.0386 H 0 **** 0
74 H 29.4773 -27.3669 -0.822215 H 0 **** 0
75 H 26.9492 -27.2025 -0.790842 H 0 **** 0
76 H 26.9693 -27.1675 1.06959 H 0 **** 0
77 H 28.402 -25.1193 -0.846186 H 0 **** 0
78 H 28.4002 -25.0695 1.01646 H 0 **** 0
@<TRIPOS>BOND
1 21 22 1
2 20 21 1
3 19 20 1
4 18 19 1
5 17 18 1
6 16 17 1
7 15 16 1
8 14 15 1
9 1 2 ar
10 2 3 ar
11 3 4 ar
12 4 5 ar
13 5 6 ar
14 6 1 ar
15 5 7 1
16 7 8 1
17 8 9 ar
18 9 10 ar
19 10 11 ar
20 11 12 ar
21 12 13 ar
22 13 8 ar
23 2 22 1
24 30 31 1
25 29 30 1
26 28 29 1
27 27 28 1
28 26 27 1
29 25 26 1
30 24 25 1
31 23 24 1
32 11 31 1
33 1 32 1
34 3 33 1
35 4 34 1
36 6 35 1
37 7 36 1
38 9 37 1
39 10 38 1
40 12 39 1
41 13 40 1
42 14 41 1
43 14 42 1
44 14 43 1
45 15 44 1
46 15 45 1
47 16 46 1
48 16 47 1
49 17 48 1
50 17 49 1
51 18 50 1
52 18 51 1
53 19 52 1
54 19 53 1
55 20 54 1
56 20 55 1
57 21 56 1
58 21 57 1
59 22 58 1
60 22 59 1
61 23 60 1
62 23 61 1
63 23 62 1
64 24 63 1
65 24 64 1
66 25 65 1
67 25 66 1
68 26 67 1
69 26 68 1
70 27 69 1
71 27 70 1
72 28 71 1
73 28 72 1
74 29 73 1
75 29 74 1
76 30 75 1
77 30 76 1
78 31 77 1
79 31 78 1
