# LMD import normalization. Review inferred bonds and atom types in the import report.
@<TRIPOS>MOLECULE
"C22 H30 O2 S"
55 56 0 0 0
SMALL
USER_CHARGES

@<TRIPOS>ATOM
1 C 9.40343 -12.2946 -0.0784803 C.2 0 **** 0
2 C 9.42977 -13.821 0.113756 C.2 0 **** 0
3 C 10.7636 -14.5408 0.380301 C.2 0 **** 0
4 C 12.0722 -13.7326 0.463562 C.2 0 **** 0
5 C 12.0551 -12.2119 0.210946 C.2 0 **** 0
6 C 10.7177 -11.4945 -0.0598864 C.2 0 **** 0
7 O 10.6909 -10.0008 -0.276317 O.3 0 **** 0
8 C 8.05701 -11.5697 -0.252821 C.3 0 **** 0
9 S 13.594 -11.2565 0.229885 S.3 0 **** 0
10 C 10.794 -16.0733 0.53318 C.3 0 **** 0
11 C 6.91383 -12.5743 -0.0156753 C.3 0 **** 0
12 C 7.95134 -10.427 0.774996 C.3 0 **** 0
13 C 7.95815 -10.9917 -1.67694 C.3 0 **** 0
14 C 15.1156 -12.2307 0.0763576 C.2 0 **** 0
15 C 15.0548 -13.7633 -0.0713119 C.2 0 **** 0
16 C 16.3561 -14.5848 -0.131481 C.2 0 **** 0
17 C 17.7191 -13.87 -0.121579 C.2 0 **** 0
18 C 17.782 -12.3361 -0.0257627 C.2 0 **** 0
19 C 16.482 -11.5171 0.0962579 C.2 0 **** 0
20 O 16.5422 -10.0131 0.212034 O.3 0 **** 0
21 C 19.1469 -11.6285 -0.106242 C.3 0 **** 0
22 C 16.2928 -16.1223 -0.191956 C.3 0 **** 0
23 C 20.1728 -12.6254 -0.676088 C.3 0 **** 0
24 C 19.0712 -10.4037 -1.03693 C.3 0 **** 0
25 C 19.5901 -11.184 1.30032 C.3 0 **** 0
26 H 8.45938 -14.4171 0.0668861 H 0 **** 0
27 H 13.05 -14.2592 0.715584 H 0 **** 0
28 H 11.5348 -9.53041 0.269905 H 0 **** 0
29 H 10.2347 -16.5608 -0.332973 H 0 **** 0
30 H 10.3013 -16.3679 1.51798 H 0 **** 0
31 H 11.8779 -16.4257 0.53084 H 0 **** 0
32 H 6.98985 -13.0014 1.039 H 0 **** 0
33 H 6.99437 -13.4223 -0.773242 H 0 **** 0
34 H 5.91218 -12.0453 -0.140586 H 0 **** 0
35 H 8.02818 -10.8586 1.82718 H 0 **** 0
36 H 6.95061 -9.89354 0.654303 H 0 **** 0
37 H 8.80006 -9.68551 0.605611 H 0 **** 0
38 H 8.03295 -11.8384 -2.43665 H 0 **** 0
39 H 8.8095 -10.2527 -1.84591 H 0 **** 0
40 H 6.95904 -10.4565 -1.80101 H 0 **** 0
41 H 14.0496 -14.2937 -0.137387 H 0 **** 0
42 H 18.6824 -14.4763 -0.188648 H 0 **** 0
43 H 15.6192 -9.56884 -0.214947 H 0 **** 0
44 H 16.8916 -16.5629 0.672267 H 0 **** 0
45 H 16.7302 -16.4827 -1.18108 H 0 **** 0
46 H 15.2064 -16.4583 -0.111239 H 0 **** 0
47 H 19.8398 -12.9502 -1.71683 H 0 **** 0
48 H 20.2352 -13.5382 0.00382432 H 0 **** 0
49 H 21.1956 -12.126 -0.741491 H 0 **** 0
50 H 18.3256 -9.64788 -0.623604 H 0 **** 0
51 H 18.7412 -10.7363 -2.07639 H 0 **** 0
52 H 20.101 -9.91978 -1.10144 H 0 **** 0
53 H 20.6099 -10.6786 1.23495 H 0 **** 0
54 H 19.66 -12.0966 1.98056 H 0 **** 0
55 H 18.8265 -10.4505 1.72259 H 0 **** 0
@<TRIPOS>BOND
1 1 2 ar
2 2 3 ar
3 3 4 ar
4 4 5 ar
5 5 6 ar
6 6 1 ar
7 6 7 1
8 1 8 1
9 5 9 1
10 3 10 1
11 8 11 1
12 8 12 1
13 8 13 1
14 9 14 1
15 14 15 ar
16 15 16 ar
17 16 17 ar
18 17 18 ar
19 18 19 ar
20 19 14 ar
21 19 20 1
22 18 21 1
23 16 22 1
24 21 23 1
25 21 24 1
26 21 25 1
27 2 26 1
28 4 27 1
29 7 28 1
30 10 29 1
31 10 30 1
32 10 31 1
33 11 32 1
34 11 33 1
35 11 34 1
36 12 35 1
37 12 36 1
38 12 37 1
39 13 38 1
40 13 39 1
41 13 40 1
42 15 41 1
43 17 42 1
44 20 43 1
45 22 44 1
46 22 45 1
47 22 46 1
48 23 47 1
49 23 48 1
50 23 49 1
51 24 50 1
52 24 51 1
53 24 52 1
54 25 53 1
55 25 54 1
56 25 55 1
