# LMD import normalization. Review inferred bonds and atom types in the import report.
@<TRIPOS>MOLECULE
"C21 H21 O4 P"
47 49 0 0 0
SMALL
USER_CHARGES

@<TRIPOS>ATOM
1 C 20.4057 -35.3426 0.231059 C.2 0 **** 0
2 C 19.9832 -36.6568 0.913191 C.2 0 **** 0
3 C 20.9092 -37.8867 0.855065 C.2 0 **** 0
4 C 22.2561 -37.8037 0.112257 C.2 0 **** 0
5 C 22.6735 -36.4923 -0.577881 C.2 0 **** 0
6 C 21.7511 -35.2606 -0.513757 C.2 0 **** 0
7 O 23.9685 -36.4199 -1.34988 O.3 0 **** 0
8 P 25.2532 -35.5633 -0.349532 P.3 0 **** 0
9 O 25.728 -36.603 1.09177 O.3 0 **** 0
10 O 26.7267 -35.2854 -1.41613 O.3 0 **** 0
11 O 24.5933 -33.9483 0.23504 O.2 0 **** 0
12 C 27.8024 -34.534 -0.669588 C.2 0 **** 0
13 C 26.4397 -37.8368 0.590445 C.2 0 **** 0
14 C 25.6429 -39.1145 0.268945 C.2 0 **** 0
15 C 26.3793 -40.3779 -0.216584 C.2 0 **** 0
16 C 27.9098 -40.3607 -0.386254 C.2 0 **** 0
17 C 28.7056 -39.0823 -0.0666609 C.2 0 **** 0
18 C 27.9709 -37.8224 0.426698 C.2 0 **** 0
19 C 29.1673 -35.1986 -0.411557 C.2 0 **** 0
20 C 30.2844 -34.4136 0.300529 C.2 0 **** 0
21 C 30.0343 -32.9655 0.759526 C.2 0 **** 0
22 C 28.6624 -32.3082 0.521639 C.2 0 **** 0
23 C 27.5472 -33.091 -0.196727 C.2 0 **** 0
24 C 19.4779 -34.1146 0.282762 C.3 0 **** 0
25 C 25.5895 -41.6684 -0.503959 C.3 0 **** 0
26 C 28.426 -30.8473 0.946827 C.3 0 **** 0
27 H 18.9852 -36.7194 1.46071 H 0 **** 0
28 H 20.5956 -38.8603 1.35847 H 0 **** 0
29 H 22.9406 -38.7145 0.0673947 H 0 **** 0
30 H 22.0616 -34.2896 -1.02407 H 0 **** 0
31 H 24.5094 -39.1264 0.393915 H 0 **** 0
32 H 28.4538 -41.2962 -0.74466 H 0 **** 0
33 H 29.8394 -39.0717 -0.185281 H 0 **** 0
34 H 28.561 -36.8801 0.676377 H 0 **** 0
35 H 29.3521 -36.2708 -0.752243 H 0 **** 0
36 H 31.2981 -34.9024 0.482743 H 0 **** 0
37 H 30.8643 -32.3802 1.2771 H 0 **** 0
38 H 26.5368 -32.5987 -0.388307 H 0 **** 0
39 H 18.5115 -34.3902 0.820939 H 0 **** 0
40 H 19.2377 -33.7754 -0.778728 H 0 **** 0
41 H 19.9966 -33.268 0.84324 H 0 **** 0
42 H 26.0889 -42.5402 0.0345348 H 0 **** 0
43 H 25.5786 -41.8707 -1.62596 H 0 **** 0
44 H 24.5204 -41.5504 -0.126502 H 0 **** 0
45 H 27.7659 -30.8223 1.87583 H 0 **** 0
46 H 27.9116 -30.2848 0.0991471 H 0 **** 0
47 H 29.4271 -30.3535 1.17776 H 0 **** 0
@<TRIPOS>BOND
1 1 2 ar
2 2 3 ar
3 3 4 ar
4 4 5 ar
5 5 6 ar
6 6 1 ar
7 5 7 1
8 7 8 1
9 8 9 1
10 8 10 1
11 8 11 2
12 10 12 1
13 9 13 1
14 13 14 ar
15 14 15 ar
16 15 16 ar
17 16 17 ar
18 17 18 ar
19 18 13 ar
20 12 19 ar
21 19 20 ar
22 20 21 ar
23 21 22 ar
24 22 23 ar
25 23 12 ar
26 1 24 1
27 15 25 1
28 22 26 1
29 2 27 1
30 3 28 1
31 4 29 1
32 6 30 1
33 14 31 1
34 16 32 1
35 17 33 1
36 18 34 1
37 19 35 1
38 20 36 1
39 21 37 1
40 23 38 1
41 24 39 1
42 24 40 1
43 24 41 1
44 25 42 1
45 25 43 1
46 25 44 1
47 26 45 1
48 26 46 1
49 26 47 1
