# LMD import normalization. Review inferred bonds and atom types in the import report.
@<TRIPOS>MOLECULE
"C17 H18 N2 S"
38 40 0 0 0
SMALL
USER_CHARGES

@<TRIPOS>ATOM
1 C 17.9975 -33.3954 0.0466324 C.2 0 **** 0
2 C 18.0859 -34.9425 0.0339283 C.2 0 **** 0
3 C 19.4634 -35.6426 -0.0117911 C.2 0 **** 0
4 C 20.7308 -34.7731 -0.0429296 C.2 0 **** 0
5 C 20.6388 -33.2593 -0.0229786 C.2 0 **** 0
6 C 19.2839 -32.5414 0.0189578 C.2 0 **** 0
7 S 22.4331 -35.3867 -0.104455 S.3 0 **** 0
8 C 23.0584 -33.6735 -0.0986517 C.2 0 **** 0
9 N 21.9878 -32.6028 -0.0516384 N.2 0 **** 0
10 N 24.5398 -33.3657 -0.128785 N.2 0 **** 0
11 C 25.0507 -31.9455 -0.0333917 C.2 0 **** 0
12 C 26.5701 -31.6901 -0.0408789 C.2 0 **** 0
13 C 27.1138 -30.2611 0.132447 C.2 0 **** 0
14 C 26.1401 -29.0869 0.325141 C.2 0 **** 0
15 C 24.6196 -29.3296 0.265211 C.2 0 **** 0
16 C 24.0742 -30.7598 0.0929088 C.2 0 **** 0
17 C 26.6903 -27.6633 0.526883 C.3 0 **** 0
18 C 28.0555 -27.5071 -0.170517 C.3 0 **** 0
19 C 28.5827 -26.0819 0.0842623 C.3 0 **** 0
20 C 29.9473 -25.8964 -0.605249 C.3 0 **** 0
21 H 16.9769 -32.8847 0.0774899 H 0 **** 0
22 H 17.1331 -35.5654 0.0576676 H 0 **** 0
23 H 19.5371 -36.781 -0.0225629 H 0 **** 0
24 H 19.2285 -31.4031 0.029337 H 0 **** 0
25 H 25.2673 -34.2008 -0.203321 H 0 **** 0
26 H 27.2924 -32.562 -0.163051 H 0 **** 0
27 H 28.2394 -30.074 0.132017 H 0 **** 0
28 H 23.8981 -28.4527 0.362553 H 0 **** 0
29 H 22.9497 -30.9379 0.0694173 H 0 **** 0
30 H 26.821 -27.475 1.64365 H 0 **** 0
31 H 25.9542 -26.9055 0.0992373 H 0 **** 0
32 H 27.9365 -27.6779 -1.29045 H 0 **** 0
33 H 28.7923 -28.2677 0.254121 H 0 **** 0
34 H 28.6999 -25.9175 1.20579 H 0 **** 0
35 H 27.8409 -25.3236 -0.334432 H 0 **** 0
36 H 29.8312 -26.0568 -1.72612 H 0 **** 0
37 H 30.6903 -26.6543 -0.187135 H 0 **** 0
38 H 30.3313 -24.8404 -0.409949 H 0 **** 0
@<TRIPOS>BOND
1 1 2 ar
2 2 3 ar
3 3 4 ar
4 4 5 ar
5 5 6 ar
6 6 1 ar
7 4 7 1
8 7 8 1
9 8 9 2
10 9 5 1
11 8 10 1
12 10 11 1
13 11 12 ar
14 12 13 ar
15 13 14 ar
16 14 15 ar
17 15 16 ar
18 16 11 ar
19 14 17 1
20 17 18 1
21 18 19 1
22 19 20 1
23 1 21 1
24 2 22 1
25 3 23 1
26 6 24 1
27 10 25 1
28 12 26 1
29 13 27 1
30 15 28 1
31 16 29 1
32 17 30 1
33 17 31 1
34 18 32 1
35 18 33 1
36 19 34 1
37 19 35 1
38 20 36 1
39 20 37 1
40 20 38 1
