# LMD import normalization. Review inferred bonds and atom types in the import report.
@<TRIPOS>MOLECULE
"C45 H81 N3 O9"
138 138 0 0 0
SMALL
USER_CHARGES

@<TRIPOS>ATOM
1 C 24.9557 -27.8677 0.297657 C.2 0 **** 0
2 N 25.4076 -29.233 -0.164017 N.2 0 **** 0
3 C 26.8629 -29.4756 -0.485033 C.2 0 **** 0
4 N 27.8583 -28.3444 -0.388566 N.2 0 **** 0
5 C 27.4072 -26.9782 0.0642675 C.2 0 **** 0
6 N 25.9514 -26.7353 0.389054 N.2 0 **** 0
7 O 28.4164 -25.8725 0.269726 O.3 0 **** 0
8 O 23.5289 -27.6611 0.749602 O.3 0 **** 0
9 O 27.3353 -30.8504 -0.889583 O.3 0 **** 0
10 C 22.5649 -27.6904 -0.412775 C.3 0 **** 0
11 C 29.6323 -26.3719 1.01793 C.3 0 **** 0
12 C 27.6754 -31.6242 0.361736 C.3 0 **** 0
13 C 30.7039 -26.9586 0.0769489 C.2 0 **** 0
14 C 21.1332 -27.754 0.15349 C.2 0 **** 0
15 O 31.973 -26.1773 -0.175509 O.3 0 **** 0
16 O 20.1232 -26.6818 -0.180148 O.3 0 **** 0
17 C 28.6346 -32.7685 -0.00942815 C.2 0 **** 0
18 O 30.0672 -32.4392 -0.349222 O.3 0 **** 0
19 O 20.7199 -28.9257 1.01088 O.2 0 **** 0
20 O 30.5593 -28.361 -0.465271 O.2 0 **** 0
21 O 28.1833 -34.2068 0.0843333 O.2 0 **** 0
22 C 33.1956 -27.0552 -0.0397531 C.3 0 **** 0
23 C 34.4576 -26.1744 -0.132427 C.3 0 **** 0
24 C 31.0199 -33.5517 0.0126883 C.3 0 **** 0
25 C 32.4405 -33.0184 -0.248367 C.3 0 **** 0
26 C 17.63 -26.2836 -0.232093 C.3 0 **** 0
27 C 18.7586 -27.3106 -0.0244247 C.3 0 **** 0
28 C 16.2893 -27.0193 -0.0476132 C.3 0 **** 0
29 C 35.7323 -27.0307 -0.00290432 C.3 0 **** 0
30 C 33.516 -34.0698 0.0784641 C.3 0 **** 0
31 C 36.9689 -26.1125 -0.0625898 C.3 0 **** 0
32 C 38.2577 -26.9508 0.0383379 C.3 0 **** 0
33 C 39.4845 -26.0203 -0.0190813 C.3 0 **** 0
34 C 40.776 -26.8566 0.0554725 C.3 0 **** 0
35 C 42.0023 -25.9261 -0.00662749 C.3 0 **** 0
36 C 43.2911 -26.7676 0.0542409 C.3 0 **** 0
37 C 44.5195 -25.8404 -0.00999871 C.3 0 **** 0
38 C 34.8836 -33.4098 -0.175189 C.3 0 **** 0
39 C 36.0363 -34.388 0.11257 C.3 0 **** 0
40 C 37.3581 -33.6384 -0.134951 C.3 0 **** 0
41 C 38.5621 -34.5607 0.126659 C.3 0 **** 0
42 C 39.8512 -33.7535 -0.112725 C.3 0 **** 0
43 C 41.0846 -34.6411 0.13399 C.3 0 **** 0
44 C 42.3557 -33.8034 -0.0974277 C.3 0 **** 0
45 C 15.1 -26.0546 -0.209728 C.3 0 **** 0
46 C 13.7984 -26.856 -0.0198386 C.3 0 **** 0
47 C 12.573 -25.9345 -0.16244 C.3 0 **** 0
48 C 11.2945 -26.7731 0.0241027 C.3 0 **** 0
49 C 10.0531 -25.8724 -0.113401 C.3 0 **** 0
50 C 8.78352 -26.7252 0.0673401 C.3 0 **** 0
51 C 7.53828 -25.83 -0.0711415 C.3 0 **** 0
52 C 45.8046 -26.686 0.0689587 C.3 0 **** 0
53 C 47.0345 -25.7604 0.00450579 C.3 0 **** 0
54 C 43.6015 -34.6733 0.150936 C.3 0 **** 0
55 C 44.867 -33.8253 -0.075105 C.3 0 **** 0
56 C 6.27029 -26.6826 0.120355 C.3 0 **** 0
57 C 5.025 -25.7872 -0.0196191 C.3 0 **** 0
58 H 22.7571 -28.6279 -1.03341 H 0 **** 0
59 H 22.7009 -26.7653 -1.06229 H 0 **** 0
60 H 29.3131 -27.1469 1.79007 H 0 **** 0
61 H 30.1057 -25.4863 1.55733 H 0 **** 0
62 H 26.7306 -32.0195 0.859103 H 0 **** 0
63 H 28.2226 -30.9271 1.08118 H 0 **** 0
64 H 33.2008 -27.8345 -0.871268 H 0 **** 0
65 H 33.1778 -27.5783 0.972832 H 0 **** 0
66 H 34.4361 -25.4062 0.709244 H 0 **** 0
67 H 34.4699 -25.6338 -1.13614 H 0 **** 0
68 H 30.9065 -33.8199 1.11396 H 0 **** 0
69 H 30.8132 -34.4683 -0.633427 H 0 **** 0
70 H 32.6117 -32.1 0.40442 H 0 **** 0
71 H 32.5343 -32.7213 -1.34466 H 0 **** 0
72 H 17.6898 -25.8436 -1.28073 H 0 **** 0
73 H 17.7225 -25.4496 0.540894 H 0 **** 0
74 H 18.6472 -28.152 -0.785374 H 0 **** 0
75 H 18.6706 -27.7441 1.02647 H 0 **** 0
76 H 16.2551 -27.4776 0.996006 H 0 **** 0
77 H 16.2093 -27.8484 -0.825104 H 0 **** 0
78 H 35.7717 -27.7835 -0.858582 H 0 **** 0
79 H 35.7221 -27.5863 0.992488 H 0 **** 0
80 H 33.3868 -34.9809 -0.595016 H 0 **** 0
81 H 33.4367 -34.3832 1.17107 H 0 **** 0
82 H 36.9299 -25.371 0.802505 H 0 **** 0
83 H 36.969 -25.5425 -1.04964 H 0 **** 0
84 H 38.2983 -27.6857 -0.832775 H 0 **** 0
85 H 38.2637 -27.527 1.02179 H 0 **** 0
86 H 39.4502 -25.2917 0.857596 H 0 **** 0
87 H 39.4709 -25.436 -0.99855 H 0 **** 0
88 H 40.8067 -27.5818 -0.824086 H 0 **** 0
89 H 40.7942 -27.4443 1.03263 H 0 **** 0
90 H 41.9772 -25.2061 0.875624 H 0 **** 0
91 H 41.9812 -25.3336 -0.98143 H 0 **** 0
92 H 43.3167 -27.4916 -0.825695 H 0 **** 0
93 H 43.3107 -27.3558 1.03026 H 0 **** 0
94 H 44.4902 -25.1091 0.863266 H 0 **** 0
95 H 44.5073 -25.2614 -0.990837 H 0 **** 0
96 H 34.9867 -32.501 0.505025 H 0 **** 0
97 H 34.9431 -33.0735 -1.26308 H 0 **** 0
98 H 35.9619 -35.2884 -0.582655 H 0 **** 0
99 H 35.989 -34.7351 1.19777 H 0 **** 0
100 H 37.4139 -32.7402 0.565202 H 0 **** 0
101 H 37.3905 -33.2765 -1.21607 H 0 **** 0
102 H 38.5254 -35.4517 -0.584478 H 0 **** 0
103 H 38.537 -34.9303 1.205 H 0 **** 0
104 H 39.8764 -32.866 0.602084 H 0 **** 0
105 H 39.8674 -33.3741 -1.18797 H 0 **** 0
106 H 41.071 -35.5248 -0.585442 H 0 **** 0
107 H 41.0705 -35.0232 1.20795 H 0 **** 0
108 H 42.3614 -32.9179 0.62156 H 0 **** 0
109 H 42.3683 -33.4207 -1.17039 H 0 **** 0
110 H 15.1179 -25.5913 -1.25102 H 0 **** 0
111 H 15.1636 -25.2313 0.576893 H 0 **** 0
112 H 13.7943 -27.328 1.01813 H 0 **** 0
113 H 13.7456 -27.6777 -0.808351 H 0 **** 0
114 H 12.5697 -25.46 -1.19891 H 0 **** 0
115 H 12.6146 -25.117 0.631409 H 0 **** 0
116 H 11.302 -27.2521 1.05887 H 0 **** 0
117 H 11.2595 -27.5892 -0.770961 H 0 **** 0
118 H 10.0445 -25.3908 -1.14664 H 0 **** 0
119 H 10.0823 -25.0596 0.685047 H 0 **** 0
120 H 8.79383 -27.2043 1.10151 H 0 **** 0
121 H 8.75519 -27.5409 -0.72876 H 0 **** 0
122 H 7.52408 -25.3571 -1.1084 H 0 **** 0
123 H 7.56934 -25.0099 0.720061 H 0 **** 0
124 H 45.8311 -27.4097 -0.809666 H 0 **** 0
125 H 45.8191 -27.2734 1.04587 H 0 **** 0
126 H 47.0063 -25.167 -0.965535 H 0 **** 0
127 H 47.9834 -26.3881 0.0381399 H 0 **** 0
128 H 47.0209 -25.0441 0.888601 H 0 **** 0
129 H 43.5985 -35.5536 -0.572908 H 0 **** 0
130 H 43.5894 -35.0617 1.22279 H 0 **** 0
131 H 44.8718 -33.4308 -1.14507 H 0 **** 0
132 H 45.7914 -34.4684 0.0970515 H 0 **** 0
133 H 44.8725 -32.9487 0.652582 H 0 **** 0
134 H 6.28234 -27.1612 1.15551 H 0 **** 0
135 H 6.24155 -27.4982 -0.675119 H 0 **** 0
136 H 4.08646 -26.4202 0.103203 H 0 **** 0
137 H 5.02402 -25.302 -1.05069 H 0 **** 0
138 H 5.04532 -24.9773 0.781282 H 0 **** 0
@<TRIPOS>BOND
1 1 2 ar
2 2 3 ar
3 3 4 ar
4 4 5 ar
5 5 6 ar
6 6 1 ar
7 5 7 1
8 1 8 1
9 3 9 1
10 8 10 1
11 7 11 1
12 9 12 1
13 11 13 1
14 10 14 1
15 13 15 1
16 14 16 1
17 12 17 1
18 17 18 1
19 14 19 2
20 13 20 2
21 17 21 2
22 15 22 1
23 22 23 1
24 24 25 1
25 18 24 1
26 26 27 1
27 16 27 1
28 26 28 1
29 23 29 1
30 25 30 1
31 29 31 1
32 31 32 1
33 32 33 1
34 33 34 1
35 34 35 1
36 35 36 1
37 36 37 1
38 30 38 1
39 38 39 1
40 39 40 1
41 40 41 1
42 41 42 1
43 42 43 1
44 43 44 1
45 28 45 1
46 45 46 1
47 46 47 1
48 47 48 1
49 48 49 1
50 49 50 1
51 50 51 1
52 37 52 1
53 52 53 1
54 44 54 1
55 54 55 1
56 51 56 1
57 56 57 1
58 10 58 1
59 10 59 1
60 11 60 1
61 11 61 1
62 12 62 1
63 12 63 1
64 22 64 1
65 22 65 1
66 23 66 1
67 23 67 1
68 24 68 1
69 24 69 1
70 25 70 1
71 25 71 1
72 26 72 1
73 26 73 1
74 27 74 1
75 27 75 1
76 28 76 1
77 28 77 1
78 29 78 1
79 29 79 1
80 30 80 1
81 30 81 1
82 31 82 1
83 31 83 1
84 32 84 1
85 32 85 1
86 33 86 1
87 33 87 1
88 34 88 1
89 34 89 1
90 35 90 1
91 35 91 1
92 36 92 1
93 36 93 1
94 37 94 1
95 37 95 1
96 38 96 1
97 38 97 1
98 39 98 1
99 39 99 1
100 40 100 1
101 40 101 1
102 41 102 1
103 41 103 1
104 42 104 1
105 42 105 1
106 43 106 1
107 43 107 1
108 44 108 1
109 44 109 1
110 45 110 1
111 45 111 1
112 46 112 1
113 46 113 1
114 47 114 1
115 47 115 1
116 48 116 1
117 48 117 1
118 49 118 1
119 49 119 1
120 50 120 1
121 50 121 1
122 51 122 1
123 51 123 1
124 52 124 1
125 52 125 1
126 53 126 1
127 53 127 1
128 53 128 1
129 54 129 1
130 54 130 1
131 55 131 1
132 55 132 1
133 55 133 1
134 56 134 1
135 56 135 1
136 57 136 1
137 57 137 1
138 57 138 1
