# LMD import normalization. Review inferred bonds and atom types in the import report.
@<TRIPOS>MOLECULE
"C16 H33 N O2 S2"
54 54 0 0 0
SMALL
USER_CHARGES

@<TRIPOS>ATOM
1 C 12.9468 -38.5805 -0.14296 C.3 0 **** 0
2 C 12.4149 -39.8785 0.491253 C.3 0 **** 0
3 C 13.3817 -41.0318 0.166653 C.3 0 **** 0
4 C 14.7734 -40.7133 0.742765 C.3 0 **** 0
5 C 15.3001 -39.4147 0.106868 C.3 0 **** 0
6 C 14.3371 -38.2608 0.43517 C.3 0 **** 0
7 N 16.6632 -39.0974 0.670058 N.2 0 **** 0
8 S 18.1026 -39.2251 -0.368046 S.o2 0 **** 0
9 C 19.5893 -38.8364 0.588051 C.3 0 **** 0
10 C 20.8321 -39.0427 -0.297932 C.3 0 **** 0
11 S 22.324 -38.6395 0.644696 S.3 0 **** 0
12 C 23.7876 -39.1101 -0.310685 C.3 0 **** 0
13 C 25.0542 -38.6359 0.425588 C.3 0 **** 0
14 C 26.3032 -39.0627 -0.368061 C.3 0 **** 0
15 C 27.5628 -38.5412 0.348222 C.3 0 **** 0
16 O 18.2272 -40.8847 -0.997986 O.2 0 **** 0
17 O 17.9594 -38.0859 -1.72851 O.2 0 **** 0
18 C 28.8186 -38.9816 -0.42707 C.3 0 **** 0
19 C 30.0708 -38.4394 0.286767 C.3 0 **** 0
20 C 31.3325 -38.8925 -0.470623 C.3 0 **** 0
21 C 32.5811 -38.3459 0.245687 C.3 0 **** 0
22 H 12.2326 -37.7228 0.088377 H 0 **** 0
23 H 13.0282 -38.7155 -1.27187 H 0 **** 0
24 H 11.3839 -40.1151 0.0657421 H 0 **** 0
25 H 12.3405 -39.7487 1.62143 H 0 **** 0
26 H 13.4585 -41.1553 -0.964016 H 0 **** 0
27 H 12.9903 -41.9971 0.629492 H 0 **** 0
28 H 15.4889 -41.5689 0.508192 H 0 **** 0
29 H 14.696 -40.5788 1.87211 H 0 **** 0
30 H 15.3739 -39.5431 -1.02385 H 0 **** 0
31 H 14.7308 -37.2965 -0.0279054 H 0 **** 0
32 H 14.2622 -38.1381 1.56598 H 0 **** 0
33 H 16.764 -38.7537 1.72072 H 0 **** 0
34 H 19.6563 -39.535 1.48627 H 0 **** 0
35 H 19.5392 -37.7563 0.948921 H 0 **** 0
36 H 20.77 -38.3717 -1.21764 H 0 **** 0
37 H 20.8735 -40.1335 -0.626362 H 0 **** 0
38 H 23.7474 -38.6237 -1.34085 H 0 **** 0
39 H 23.813 -40.244 -0.426239 H 0 **** 0
40 H 25.0905 -39.0996 1.46631 H 0 **** 0
41 H 25.0316 -37.4998 0.516955 H 0 **** 0
42 H 26.2585 -38.6202 -1.41774 H 0 **** 0
43 H 26.3407 -40.1999 -0.436131 H 0 **** 0
44 H 27.6038 -38.9642 1.40598 H 0 **** 0
45 H 27.5238 -37.4028 0.396844 H 0 **** 0
46 H 28.7781 -38.569 -1.48886 H 0 **** 0
47 H 28.8618 -40.1201 -0.464229 H 0 **** 0
48 H 30.1046 -38.841 1.35278 H 0 **** 0
49 H 30.0289 -37.3004 0.312244 H 0 **** 0
50 H 31.3001 -38.4963 -1.53861 H 0 **** 0
51 H 31.3742 -40.0317 -0.48964 H 0 **** 0
52 H 32.543 -37.2058 0.263696 H 0 **** 0
53 H 33.5149 -38.6873 -0.310177 H 0 **** 0
54 H 32.6078 -38.7427 1.31529 H 0 **** 0
@<TRIPOS>BOND
1 1 2 1
2 2 3 1
3 3 4 1
4 4 5 1
5 5 6 1
6 6 1 1
7 5 7 1
8 7 8 1
9 8 9 1
10 9 10 1
11 10 11 1
12 11 12 1
13 12 13 1
14 13 14 1
15 14 15 1
16 8 16 2
17 8 17 2
18 15 18 1
19 18 19 1
20 19 20 1
21 20 21 1
22 1 22 1
23 1 23 1
24 2 24 1
25 2 25 1
26 3 26 1
27 3 27 1
28 4 28 1
29 4 29 1
30 5 30 1
31 6 31 1
32 6 32 1
33 7 33 1
34 9 34 1
35 9 35 1
36 10 36 1
37 10 37 1
38 12 38 1
39 12 39 1
40 13 40 1
41 13 41 1
42 14 42 1
43 14 43 1
44 15 44 1
45 15 45 1
46 18 46 1
47 18 47 1
48 19 48 1
49 19 49 1
50 20 50 1
51 20 51 1
52 21 52 1
53 21 53 1
54 21 54 1
