# LMD: inferred aromatic bond orders from explicit topology and atom types.
# Original unknown bond IDs: 8, 9, 10, 11, 12, 13, 14, 15, 16, 17, 18, 21, 22, 23, 24, 25, 26
# Review the structure before saving; the source L06.mol2 was not modified.
@<TRIPOS>MOLECULE
"C24 H29 N"
54 56 0 0 0
SMALL
USER_CHARGES

@<TRIPOS>ATOM
1 C 31.5952 -35.6352 -0.168116 C.2 0 **** 0
2 C 31.0596 -37.0779 -0.101236 C.2 0 **** 0
3 C 32.0367 -38.2539 0.0828132 C.2 0 **** 0
4 C 33.5489 -37.9864 0.19995 C.2 0 **** 0
5 C 34.0849 -36.544 0.130932 C.2 0 **** 0
6 C 33.1077 -35.368 -0.0530993 C.2 0 **** 0
7 C 34.5257 -39.1616 0.382738 C.2 0 **** 0
8 C 36.0357 -38.8934 0.514787 C.2 0 **** 0
9 C 36.5705 -37.4511 0.452748 C.2 0 **** 0
10 C 35.5985 -36.2755 0.232689 C.2 0 **** 0
11 N 36.1088 -34.8529 0.142297 N.2 0 **** 0
12 C 37.5816 -34.5565 -0.0454468 C.2 0 **** 0
13 C 38.5694 -35.6848 -0.400108 C.2 0 **** 0
14 C 40.059 -35.3666 -0.616721 C.2 0 **** 0
15 C 40.5594 -33.915 -0.51646 C.2 0 **** 0
16 C 39.5787 -32.7853 -0.1536 C.2 0 **** 0
17 C 38.0886 -33.1051 0.0742022 C.2 0 **** 0
18 C 49.0942 -28.5433 0.56322 C.3 0 **** 0
19 C 48.3262 -29.7364 -0.0349578 C.3 0 **** 0
20 C 46.885 -29.7596 0.5086 C.3 0 **** 0
21 C 46.1468 -30.9549 -0.120206 C.3 0 **** 0
22 C 44.6854 -31.0214 0.361165 C.3 0 **** 0
23 C 44.0339 -32.2242 -0.344471 C.3 0 **** 0
24 C 42.5472 -32.3874 0.0245681 C.3 0 **** 0
25 C 42.0446 -33.6042 -0.773335 C.3 0 **** 0
26 H 30.8719 -34.7644 -0.302823 H 0 **** 0
27 H 29.9401 -37.275 -0.187985 H 0 **** 0
28 H 31.6406 -39.3217 0.132292 H 0 **** 0
29 H 33.504 -34.3003 -0.104141 H 0 **** 0
30 H 34.1308 -40.2304 0.420301 H 0 **** 0
31 H 36.7586 -39.763 0.658622 H 0 **** 0
32 H 37.6868 -37.2516 0.569643 H 0 **** 0
33 H 35.3985 -34.0029 0.213775 H 0 **** 0
34 H 38.1968 -36.7573 -0.502388 H 0 **** 0
35 H 40.793 -36.2066 -0.851716 H 0 **** 0
36 H 39.9552 -31.7139 -0.0537465 H 0 **** 0
37 H 37.3588 -32.268 0.331684 H 0 **** 0
38 H 49.6114 -27.9665 -0.273078 H 0 **** 0
39 H 49.8751 -28.9252 1.30072 H 0 **** 0
40 H 48.3646 -27.8548 1.10487 H 0 **** 0
41 H 48.3009 -29.6393 -1.17053 H 0 **** 0
42 H 48.8556 -30.7048 0.250417 H 0 **** 0
43 H 46.905 -29.8749 1.64257 H 0 **** 0
44 H 46.3483 -28.7928 0.23114 H 0 **** 0
45 H 46.163 -30.8502 -1.25528 H 0 **** 0
46 H 46.6883 -31.9135 0.175432 H 0 **** 0
47 H 44.6558 -31.1719 1.49079 H 0 **** 0
48 H 44.1256 -30.0682 0.0823326 H 0 **** 0
49 H 44.1226 -32.0848 -1.47243 H 0 **** 0
50 H 44.6059 -33.1624 -0.0408888 H 0 **** 0
51 H 42.4413 -32.5824 1.14276 H 0 **** 0
52 H 41.9456 -31.4649 -0.270014 H 0 **** 0
53 H 42.6672 -34.5156 -0.488066 H 0 **** 0
54 H 42.1704 -33.4056 -1.88881 H 0 **** 0
@<TRIPOS>BOND
1 24 25 1
2 23 24 1
3 22 23 1
4 21 22 1
5 20 21 1
6 19 20 1
7 18 19 1
8 1 2 ar
9 2 3 ar
10 3 4 ar
11 4 5 ar
12 5 6 ar
13 6 1 ar
14 4 7 ar
15 7 8 ar
16 8 9 ar
17 9 10 ar
18 10 5 ar
19 10 11 1
20 11 12 1
21 12 13 ar
22 13 14 ar
23 14 15 ar
24 15 16 ar
25 16 17 ar
26 17 12 ar
27 15 25 1
28 1 26 1
29 2 27 1
30 3 28 1
31 6 29 1
32 7 30 1
33 8 31 1
34 9 32 1
35 11 33 1
36 13 34 1
37 14 35 1
38 16 36 1
39 17 37 1
40 18 38 1
41 18 39 1
42 18 40 1
43 19 41 1
44 19 42 1
45 20 43 1
46 20 44 1
47 21 45 1
48 21 46 1
49 22 47 1
50 22 48 1
51 23 49 1
52 23 50 1
53 24 51 1
54 24 52 1
55 25 53 1
56 25 54 1
